Version 4
SHEET 1 2552 792
WIRE 176 -160 112 -160
WIRE 208 -160 176 -160
WIRE 528 -160 208 -160
WIRE 560 -160 528 -160
WIRE 864 -160 560 -160
WIRE 896 -160 864 -160
WIRE 208 -128 208 -160
WIRE 528 -128 528 -160
WIRE 368 -112 256 -112
WIRE 480 -112 368 -112
WIRE 176 -80 176 -160
WIRE 208 -80 176 -80
WIRE 560 -80 560 -160
WIRE 560 -80 528 -80
WIRE 368 0 368 -112
WIRE 528 0 528 -32
WIRE 528 0 368 0
WIRE -128 32 -192 32
WIRE 864 48 864 -160
WIRE 208 64 208 -32
WIRE 624 64 208 64
WIRE 816 64 624 64
WIRE -192 80 -192 32
WIRE 896 96 896 -160
WIRE 896 96 864 96
WIRE 624 160 624 64
WIRE 656 160 624 160
WIRE 864 160 864 144
WIRE 864 160 800 160
WIRE 208 176 208 64
WIRE 528 176 528 0
WIRE -192 208 -192 160
WIRE 240 224 208 224
WIRE 528 224 496 224
WIRE 160 256 48 256
WIRE 640 256 576 256
WIRE 688 256 640 256
WIRE 864 256 864 160
WIRE 864 256 768 256
WIRE 944 256 864 256
WIRE 208 304 208 272
WIRE 368 304 208 304
WIRE 528 304 528 272
WIRE 528 304 368 304
WIRE 48 320 48 256
WIRE -192 352 -192 320
WIRE 368 368 368 304
WIRE 864 368 864 256
WIRE 640 384 640 256
WIRE 400 416 368 416
WIRE 48 432 48 400
WIRE -192 480 -192 432
WIRE 48 560 48 512
WIRE 240 560 240 224
WIRE 240 560 48 560
WIRE 368 560 368 464
WIRE 368 560 240 560
WIRE 400 560 400 416
WIRE 400 560 368 560
WIRE 496 560 496 224
WIRE 496 560 400 560
WIRE 640 560 640 448
WIRE 640 560 496 560
WIRE 864 560 864 448
WIRE 864 560 640 560
WIRE 368 592 368 560
FLAG -192 208 0
FLAG -128 32 V_DD
FLAG 944 256 Vout
FLAG 320 448 Vbias
FLAG 368 592 0
FLAG 112 -160 V_DD
FLAG -192 480 0
FLAG -192 320 Vbias
SYMBOL voltage -192 64 R0
WINDOW 123 0 0 Left 0
WINDOW 39 0 0 Left 0
SYMATTR InstName V1
SYMATTR Value 1
SYMBOL pmos4 256 -32 R180
WINDOW 123 56 4 Left 2
SYMATTR Value2 w=Wp l=Lp
SYMATTR InstName M12
SYMATTR Value pmos_1p8
SYMBOL pmos4 480 -32 M180
WINDOW 123 56 4 Left 2
SYMATTR Value2 w=Wp l=Lp
SYMATTR InstName M13
SYMATTR Value pmos_1p8
SYMBOL nmos4 160 176 R0
WINDOW 123 56 100 Left 2
SYMATTR Value2 w=Wd l=Ld
SYMATTR InstName M14
SYMATTR Value nmos_1p8
SYMBOL nmos4 576 176 M0
WINDOW 123 56 100 Left 2
SYMATTR Value2 w=Wd l=Ld
SYMATTR InstName M15
SYMATTR Value nmos_1p8
SYMBOL nmos4 320 368 R0
WINDOW 123 56 100 Left 2
SYMATTR Value2 w=W2 l=L2
SYMATTR InstName M16
SYMATTR Value nmos_1p8
SYMBOL pmos4 816 144 M180
WINDOW 123 56 4 Left 2
SYMATTR Value2 w=80u l=0.5u m=5
SYMATTR InstName M17
SYMATTR Value pmos_1p8
SYMBOL res 848 352 R0
SYMATTR InstName R7
SYMATTR Value 100k
SYMBOL voltage 48 304 R0
SYMATTR InstName Vin
SYMATTR Value AC 1
SYMBOL ind 784 240 R90
WINDOW 0 5 56 VBottom 2
WINDOW 3 32 56 VTop 2
SYMATTR InstName L1
SYMATTR Value 1Meg
SYMBOL cap 624 384 R0
SYMATTR InstName C1
SYMATTR Value 1
SYMBOL voltage -192 336 R0
SYMATTR InstName V2
SYMATTR Value 0.5
SYMBOL voltage 48 416 R0
WINDOW 123 0 0 Left 0
WINDOW 39 0 0 Left 0
SYMATTR InstName Vref
SYMATTR Value 0.8
SYMBOL cap 800 144 R90
WINDOW 0 0 32 VBottom 2
WINDOW 3 32 32 VTop 2
SYMATTR InstName C2
SYMATTR Value 100n
SYMBOL res 752 144 R90
WINDOW 0 0 56 VBottom 2
WINDOW 3 32 56 VTop 2
SYMATTR InstName R1
SYMATTR Value 1
TEXT 136 -344 Left 2 !.LIB 'csm018ic_reduced.lib' typical
TEXT 112 696 Left 2 !.options numdgt=99 plotwinsize=0
TEXT 112 776 Left 2 !.ac dec 10 10 100T
TEXT 112 736 Left 2 !;.step temp -40 80 1
TEXT 136 -296 Left 2 !; pmos\n.param Wp=20u Lp=2u\n.param W2=10u L2=1u
TEXT 480 -296 Left 2 !; op amp\n.param Wd=50u Ld=2u
