Version 4
SHEET 1 880 680
WIRE 400 192 160 192
WIRE 160 224 160 192
WIRE 400 256 400 192
WIRE 240 272 160 272
WIRE 112 304 0 304
WIRE 0 336 0 304
WIRE 0 448 0 416
WIRE 160 448 160 320
WIRE 160 448 0 448
WIRE 240 448 240 272
WIRE 240 448 160 448
WIRE 400 448 400 336
WIRE 400 448 240 448
WIRE 160 480 160 448
FLAG 160 480 0
SYMBOL nmos4 112 224 R0
WINDOW 123 56 100 Left 2
SYMATTR Value2 w=2U l=0.5U
SYMATTR InstName M1
SYMATTR Value nmos_1p8
SYMBOL voltage 0 320 R0
WINDOW 123 0 0 Left 0
WINDOW 39 0 0 Left 0
SYMATTR InstName V_GS
SYMATTR Value 1.8
SYMBOL voltage 400 240 R0
WINDOW 123 0 0 Left 0
WINDOW 39 0 0 Left 0
SYMATTR InstName V_DS
SYMATTR Value 1.8
TEXT 0 96 Left 2 !.LIB 'csm018ic_reduced.lib' typical
TEXT 0 136 Left 2 !.dc V_DS 0 1.8 0.01 V_GS 0.5 0.8 0.05
TEXT -328 200 Left 2 !.options numdgt=99\n.options plotwinsize=0
