Version 4
SHEET 1 880 680
WIRE 160 192 0 192
WIRE 224 192 160 192
WIRE 400 192 224 192
WIRE 0 224 0 192
WIRE 400 240 400 192
WIRE 160 256 160 192
WIRE 224 304 224 192
WIRE 224 304 160 304
WIRE 0 336 0 304
WIRE 112 336 0 336
WIRE 160 384 160 352
WIRE 400 384 400 320
WIRE 400 384 160 384
WIRE 160 416 160 384
FLAG 160 416 0
SYMBOL voltage 0 208 R0
WINDOW 123 0 0 Left 0
WINDOW 39 0 0 Left 0
SYMATTR InstName V_SG
SYMATTR Value 1.8
SYMBOL voltage 400 224 R0
WINDOW 123 0 0 Left 0
WINDOW 39 0 0 Left 0
SYMATTR InstName V_SD
SYMATTR Value 1.8
SYMBOL pmos4 112 256 R0
WINDOW 123 56 100 Left 2
SYMATTR InstName M1
SYMATTR Value pmos_1p8
SYMATTR Value2 w=2U l=0.5U
TEXT 0 96 Left 2 !.LIB 'csm018ic_reduced.lib' typical
TEXT 0 136 Left 2 !.dc V_SD 0 1.8 0.01 V_SG 1 1.8 0.2
TEXT -328 200 Left 2 !.options numdgt=99
TEXT -328 232 Left 2 !.options plotwinsize=0
