Version 4
SHEET 1 880 680
WIRE 512 128 288 128
WIRE 672 128 512 128
WIRE 512 160 512 128
WIRE 288 224 288 128
WIRE 672 224 672 128
WIRE 512 272 512 240
WIRE 512 272 288 272
WIRE 240 304 224 304
WIRE 224 384 224 304
WIRE 288 384 288 320
WIRE 288 384 224 384
WIRE 480 384 288 384
WIRE 672 384 672 304
WIRE 672 384 480 384
WIRE 480 416 480 384
FLAG 480 416 0
SYMBOL voltage 672 208 R0
SYMATTR InstName V_SG
SYMATTR Value 1.8
SYMBOL voltage 512 256 R180
WINDOW 0 24 96 Left 2
WINDOW 3 24 16 Left 2
WINDOW 123 0 0 Left 0
WINDOW 39 0 0 Left 0
SYMATTR InstName V_BS
SYMATTR Value 0
SYMBOL pmos4 240 224 R0
WINDOW 123 56 100 Left 2
SYMATTR InstName M1
SYMATTR Value pmos_1p8
SYMATTR Value2 w=2U l=0.5U
TEXT 256 24 Left 2 !.LIB 'csm018ic_reduced.lib' typical
TEXT 256 64 Left 2 !.dc V_SG 0 1.8 0.01 V_BS 0 1.8 0.6
TEXT -88 152 Left 2 !.options numdgt=99
TEXT -88 184 Left 2 !.options plotwinsize=0
